8500-Node/test.dss
Clear

New Circuit.IEEE8500_Reduced_Reduced pu=1.05 R1=0 X1=0.001 R0=0 X0=0.001
New Line._hvmv_sub_lsb_hvmv_sub_48332 Phases=3 bus1=_hvmv_sub_lsb.1.2.3 bus2=hvmv_sub_48332.1.2.3 Units=kft Length=0.0032808 Rmatrix=(0.0003048|0    0.0003048|0            0    0.0003048) Xmatrix=(0.003048|0     0.003048|0            0     0.003048)
New Line.hvmv_sub_48332_d5710794_3_int Phases=3 bus1=hvmv_sub_48332.1.2.3 bus2=d5710794_3_int.1.2.3 Units=kft Length=0.063767 Rmatrix=(0.0652764|0.0170065    0.0646574|0.0174234     0.017096    0.0654712) Xmatrix=(0.193535|0.0837802     0.198844|0.0751416    0.0886722     0.191885)
New Line.m1009763_l2673322 Phases=1 bus1=m1009763.2 bus2=l2673322.2 Units=kft Length=0.10556 Rmatrix=(0.510442) Xmatrix=(0.284857)
New Line.m1009763_e182733 Phases=3 bus1=m1009763.1.2.3 bus2=e182733.1.2.3 Units=kft Length=0.27128 Rmatrix=(0.513099|0.0421611     0.511106|0.0434854    0.0424567     0.513718) Xmatrix=(0.282641|0.131863     0.284295|0.125655     0.137303     0.282134)
New Line.m1009763_l2766730 Phases=1 bus1=m1009763.2 bus2=l2766730.2 Units=kft Length=0.081675 Rmatrix=(0.510446) Xmatrix=(0.28486)
New Line.l2673322_l2859391 Phases=1 bus1=l2673322.2 bus2=l2859391.2 Units=kft Length=0.162 Rmatrix=(0.342075) Xmatrix=(0.27321)
New Line.m1069148_l2673309 Phases=1 bus1=m1069148.3 bus2=l2673309.3 Units=kft Length=0.35182 Rmatrix=(0.510417) Xmatrix=(0.284843)
New Line.m1069148_l2785518 Phases=1 bus1=m1069148.3 bus2=l2785518.3 Units=kft Length=0.090297 Rmatrix=(0.510429) Xmatrix=(0.28485)
New Line.m1069588_l2804270 Phases=1 bus1=m1069588.2 bus2=l2804270.2 Units=kft Length=0.037554 Rmatrix=(0.510421) Xmatrix=(0.284845)
New Line.m1069588_m1069590 Phases=1 bus1=m1069588.2 bus2=m1069590.2 Units=kft Length=0.36233 Rmatrix=(0.510442) Xmatrix=(0.284857)
New Line.l2804270_l3104145 Phases=1 bus1=l2804270.2 bus2=l3104145.2 Units=kft Length=0.29169 Rmatrix=(0.510438) Xmatrix=(0.284855)
New Line.m3036164_l2935553 Phases=1 bus1=m3036164.2 bus2=l2935553.2 Units=kft Length=0.15667 Rmatrix=(0.51044) Xmatrix=(0.284856)
New Line.m3036164_l3085397 Phases=1 bus1=m3036164.2 bus2=l3085397.2 Units=kft Length=0.55389 Rmatrix=(0.510446) Xmatrix=(0.284859)
New Line.l2935553_m1026987 Phases=1 bus1=l2935553.2 bus2=m1026987.2 Units=kft Length=0.42987 Rmatrix=(0.511239) Xmatrix=(0.284209)
New Line.m1209749_l2748840 Phases=1 bus1=m1209749.2 bus2=l2748840.2 Units=kft Length=0.66661 Rmatrix=(0.342075) Xmatrix=(0.27321)
New Line.m1108264_m1108263 Phases=1 bus1=m1108264.2 bus2=m1108263.2 Units=kft Length=0.32807 Rmatrix=(0.511218) Xmatrix=(0.284198)
New Line.m1108263_n1142112 Phases=1 bus1=m1108263.2 bus2=n1142112.2 Units=kft Length=0.38736 Rmatrix=(0.498002) Xmatrix=(0.273361)
New Line.l3085398_m1026891 Phases=3 bus1=l3085398.1.2.3 bus2=m1026891.1.2.3 Units=kft Length=0.2812 Rmatrix=(0.513099|0.042161     0.511105|0.0434854    0.0424567     0.513717) Xmatrix=(0.28264|0.131863     0.284294|0.125654     0.137302     0.282133)
New Line.m1026891_l3160102 Phases=3 bus1=m1026891.1.2.3 bus2=l3160102.1.2.3 Units=kft Length=0.28633 Rmatrix=(0.5131|0.0421612     0.511107|0.0434855    0.0424568     0.513719) Xmatrix=(0.282641|0.131864     0.284296|0.125655     0.137303     0.282134)
New Line.m1026891_n1147863 Phases=1 bus1=m1026891.3 bus2=n1147863.3 Units=kft Length=0.030947 Rmatrix=(0.510439) Xmatrix=(0.284855)
New Line.l3216367_m1069468 Phases=3 bus1=l3216367.1.2.3 bus2=m1069468.1.2.3 Units=kft Length=0.13565 Rmatrix=(0.201434|0.0419099      0.19934|0.0433019    0.0422205     0.202085) Xmatrix=(0.265161|0.118439     0.267776|0.111592     0.123735     0.264354)
New Line.m1069468_m1069464 Phases=3 bus1=m1069468.1.2.3 bus2=m1069464.1.2.3 Units=kft Length=0.2399 Rmatrix=(0.201435|0.04191      0.19934|0.043302    0.0422206     0.202086) Xmatrix=(0.265162|0.11844     0.267777|0.111593     0.123735     0.264355)
New Line.m1069468_p827506 Phases=1 bus1=m1069468.1 bus2=p827506.1 Units=kft Length=0.027934 Rmatrix=(0.510439) Xmatrix=(0.284855)
New Line.m1142800_m1142799 Phases=1 bus1=m1142800.2 bus2=m1142799.2 Units=kft Length=0.30611 Rmatrix=(0.342078) Xmatrix=(0.273212)
New Line.m1142799_m1142798 Phases=1 bus1=m1142799.2 bus2=m1142798.2 Units=kft Length=0.33064 Rmatrix=(0.342081) Xmatrix=(0.273215)
New Line.m1047592_p827512 Phases=1 bus1=m1047592.3 bus2=p827512.3 Units=kft Length=0.011995 Rmatrix=(0.510443) Xmatrix=(0.284858)
New Line.m1047592_m3763619 Phases=3 bus1=m1047592.1.2.3 bus2=m3763619.1.2.3 Units=kft Length=0.13153 Rmatrix=(0.201432|0.0419094     0.199337|0.0433014      0.04222     0.202083) Xmatrix=(0.265158|0.118438     0.267773|0.111591     0.123734     0.264351)
New Line.p827512_n1136994 Phases=1 bus1=p827512.3 bus2=n1136994.3 Units=kft Length=0.052748 Rmatrix=(0.510422) Xmatrix=(0.284846)
New Line.m1047339_p895104 Phases=1 bus1=m1047339.1 bus2=p895104.1 Units=kft Length=0.025393 Rmatrix=(0.497103) Xmatrix=(0.262499)
New Line.m1047339_l2860491 Phases=3 bus1=m1047339.1.2.3 bus2=l2860491.1.2.3 Units=kft Length=0.27191 Rmatrix=(0.513101|0.0421612     0.511108|0.0434856    0.0424569      0.51372) Xmatrix=(0.282642|0.131864     0.284296|0.125655     0.137303     0.282135)
New Line.p895104_n1139537 Phases=1 bus1=p895104.1 bus2=n1139537.1 Units=kft Length=0.04669 Rmatrix=(0.4971) Xmatrix=(0.262498)
New Line.m1026915_m1026920 Phases=3 bus1=m1026915.1.2.3 bus2=m1026920.1.2.3 Units=kft Length=0.13401 Rmatrix=(0.513978|0.043001     0.343891|0.044369    0.0433065     0.346592) Xmatrix=(0.281933|0.131175     0.284615|0.124938     0.136608     0.282399)
New Line.m1026915_m1026916 Phases=1 bus1=m1026915.2 bus2=m1026916.2 Units=kft Length=0.010003 Rmatrix=(0.342079) Xmatrix=(0.273214)
New Line.m1026920_m1026926 Phases=3 bus1=m1026920.1.2.3 bus2=m1026926.1.2.3 Units=kft Length=0.30814 Rmatrix=(0.513971|0.0430005     0.343887|0.0443684    0.0433059     0.346587) Xmatrix=(0.281929|0.131173     0.284611|0.124937     0.136606     0.282395)
New Line.m1026920_l2729408 Phases=1 bus1=m1026920.2 bus2=l2729408.2 Units=kft Length=0.079516 Rmatrix=(0.342084) Xmatrix=(0.273217)
New Line.n1138596_l3254207 Phases=1 bus1=n1138596.1 bus2=l3254207.1 Units=kft Length=0.080352 Rmatrix=(0.510429) Xmatrix=(0.28485)
New Line.l3254207_m1069390 Phases=1 bus1=l3254207.1 bus2=m1069390.1 Units=kft Length=0.23258 Rmatrix=(0.510438) Xmatrix=(0.284855)
New Line.m1069464_p873787 Phases=1 bus1=m1069464.2 bus2=p873787.2 Units=kft Length=0.020458 Rmatrix=(0.342075) Xmatrix=(0.27321)
New Line.m1069464_m1069461 Phases=3 bus1=m1069464.1.2.3 bus2=m1069461.1.2.3 Units=kft Length=0.26357 Rmatrix=(0.201432|0.0419095     0.199338|0.0433015    0.0422201     0.202084) Xmatrix=(0.265159|0.118438     0.267774|0.111591     0.123734     0.264352)
New Line.p873787_m1069463 Phases=1 bus1=p873787.2 bus2=m1069463.2 Units=kft Length=0.048468 Rmatrix=(0.342077) Xmatrix=(0.273212)
New Line.n1144665_m1047515 Phases=3 bus1=n1144665.1.2.3 bus2=m1047515.1.2.3 Units=kft Length=0.089857 Rmatrix=(0.513981|0.0430013     0.511921|0.0443693    0.0433067     0.514621) Xmatrix=(0.281935|0.131176     0.283631|0.124939     0.136609     0.281415)
New Line.m1047515_m1047513 Phases=3 bus1=m1047515.1.2.3 bus2=m1047513.1.2.3 Units=kft Length=0.36971 Rmatrix=(0.513112|0.0421621     0.511119|0.0434865    0.0424578     0.513731) Xmatrix=(0.282648|0.131867     0.284302|0.125658     0.137306     0.282141)
New Line.n1137002_m1047707 Phases=1 bus1=n1137002.1 bus2=m1047707.1 Units=kft Length=0.30342 Rmatrix=(0.342077) Xmatrix=(0.273212)
New Line.m1047707_l3159645 Phases=1 bus1=m1047707.1 bus2=l3159645.1 Units=kft Length=0.0076842 Rmatrix=(0.342083) Xmatrix=(0.273217)
New Line.l2729406_l2897768 Phases=1 bus1=l2729406.3 bus2=l2897768.3 Units=kft Length=0.63902 Rmatrix=(0.51043) Xmatrix=(0.28485)
New Line.l3649301_l3649302 Phases=1 bus1=l3649301.1 bus2=l3649302.1 Units=kft Length=0.20689 Rmatrix=(0.342074) Xmatrix=(0.27321)
New Line.l3649302_l3649304 Phases=1 bus1=l3649302.1 bus2=l3649304.1 Units=kft Length=0.20591 Rmatrix=(0.342079) Xmatrix=(0.273214)
New Line.l2970842_m1089113 Phases=1 bus1=l2970842.2 bus2=m1089113.2 Units=kft Length=0.23582 Rmatrix=(0.51044) Xmatrix=(0.284856)
New Line.m1089113_m1089103 Phases=1 bus1=m1089113.2 bus2=m1089103.2 Units=kft Length=1.4473 Rmatrix=(0.510442) Xmatrix=(0.284857)
New Line.m1089113_l2691946 Phases=1 bus1=m1089113.2 bus2=l2691946.2 Units=kft Length=0.24939 Rmatrix=(0.342079) Xmatrix=(0.273214)
New Line.m1047312_p893163 Phases=1 bus1=m1047312.1 bus2=p893163.1 Units=kft Length=0.013598 Rmatrix=(0.497196) Xmatrix=(0.274006)
New Line.m1047312_n1137960 Phases=3 bus1=m1047312.1.2.3 bus2=n1137960.1.2.3 Units=kft Length=0.049768 Rmatrix=(0.513965|0.043     0.511904|0.0443679    0.0433054     0.514605) Xmatrix=(0.281926|0.131172     0.283622|0.124935     0.136605     0.281406)
New Line.p893163_m1047314 Phases=1 bus1=p893163.1 bus2=m1047314.1 Units=kft Length=0.012881 Rmatrix=(0.497204) Xmatrix=(0.27401)
New Line.l2822871_m1026872 Phases=3 bus1=l2822871.1.2.3 bus2=m1026872.1.2.3 Units=kft Length=0.19732 Rmatrix=(0.201432|0.0419094     0.199337|0.0433014    0.0422199     0.202083) Xmatrix=(0.265158|0.118438     0.267773|0.111591     0.123733     0.264351)
New Line.m1026872_d5502543_2_int Phases=3 bus1=m1026872.1.2.3 bus2=d5502543_2_int.1.2.3 Units=kft Length=0.29925 Rmatrix=(0.201434|0.0419098     0.199339|0.0433018    0.0422204     0.202085) Xmatrix=(0.26516|0.118439     0.267776|0.111592     0.123735     0.264354)
New Line.m1026312_l2973163 Phases=1 bus1=m1026312.2 bus2=l2973163.2 Units=kft Length=0.17548 Rmatrix=(0.511219) Xmatrix=(0.284199)
New Line.l2973163_m1026309 Phases=1 bus1=l2973163.2 bus2=m1026309.2 Units=kft Length=0.28177 Rmatrix=(0.510439) Xmatrix=(0.284855)
New Line.l3728038_l3728039 Phases=1 bus1=l3728038.1 bus2=l3728039.1 Units=kft Length=0.25954 Rmatrix=(0.342078) Xmatrix=(0.273213)
New Line.l3728039_l3728040 Phases=1 bus1=l3728039.1 bus2=l3728040.1 Units=kft Length=0.19799 Rmatrix=(0.342079) Xmatrix=(0.273214)
New Line.m1069567_m1069582 Phases=1 bus1=m1069567.2 bus2=m1069582.2 Units=kft Length=0.50182 Rmatrix=(0.510452) Xmatrix=(0.284862)
New Line.m1069567_l2691966 Phases=1 bus1=m1069567.2 bus2=l2691966.2 Units=kft Length=0.26918 Rmatrix=(0.510437) Xmatrix=(0.284854)
New Line.m1069582_l2973171 Phases=1 bus1=m1069582.2 bus2=l2973171.2 Units=kft Length=0.086042 Rmatrix=(0.342071) Xmatrix=(0.273207)
New Line.m1069582_l2933165 Phases=1 bus1=m1069582.2 bus2=l2933165.2 Units=kft Length=0.20694 Rmatrix=(0.510433) Xmatrix=(0.284852)
New Line.m1069582_d6231996_1_int Phases=1 bus1=m1069582.2 bus2=d6231996_1_int.2 Units=kft Length=0.080975 Rmatrix=(0.510435) Xmatrix=(0.284853)
New Line.n1140830_l3216351 Phases=1 bus1=n1140830.1 bus2=l3216351.1 Units=kft Length=0.028673 Rmatrix=(0.510433) Xmatrix=(0.284852)
New Line.l3216351_l2879081 Phases=1 bus1=l3216351.1 bus2=l2879081.1 Units=kft Length=0.104 Rmatrix=(0.51044) Xmatrix=(0.284856)
New Line.l2952007_l2861158 Phases=1 bus1=l2952007.3 bus2=l2861158.3 Units=kft Length=0.41518 Rmatrix=(0.510451) Xmatrix=(0.284862)
New Line.n1140827_m1026726 Phases=3 bus1=n1140827.1.2.3 bus2=m1026726.1.2.3 Units=kft Length=0.056657 Rmatrix=(0.5131|0.0421612     0.511107|0.0434855    0.0424568     0.513719) Xmatrix=(0.282641|0.131864     0.284296|0.125655     0.137303     0.282134)
New Line.m1026726_l2814529 Phases=3 bus1=m1026726.1.2.3 bus2=l2814529.1.2.3 Units=kft Length=0.12984 Rmatrix=(0.344878|0.0419101     0.342784|0.0433021    0.0422207     0.345531) Xmatrix=(0.269716|0.11844     0.272331|0.111593     0.123736     0.268909)
New Line.m1026726_l2916610 Phases=1 bus1=m1026726.2 bus2=l2916610.2 Units=kft Length=0.21591 Rmatrix=(0.511238) Xmatrix=(0.28409)
New Line.m1026726_l2876847 Phases=1 bus1=m1026726.2 bus2=l2876847.2 Units=kft Length=0.23911 Rmatrix=(0.510439) Xmatrix=(0.284856)
New Line.l2730106_n1142099 Phases=3 bus1=l2730106.1.2.3 bus2=n1142099.1.2.3 Units=kft Length=0.073389 Rmatrix=(0.0823017|0.033513    0.0806603|0.0346063    0.0337556    0.0828134) Xmatrix=(0.212133|0.101654      0.21602|0.0939609     0.106759     0.210928)
New Line.n1142099_n1142100 Phases=3 bus1=n1142099.1.2.3 bus2=n1142100.1.2.3 Units=kft Length=0.11442 Rmatrix=(0.0823026|0.0335134    0.0806612|0.0346067     0.033756    0.0828143) Xmatrix=(0.212135|0.101655     0.216023|0.0939619      0.10676      0.21093)
New Line.m1026658_l3172805 Phases=1 bus1=m1026658.1 bus2=l3172805.1 Units=kft Length=0.35 Rmatrix=(0.342076) Xmatrix=(0.273211)
New Line.m1026658_m1026655 Phases=3 bus1=m1026658.1.2.3 bus2=m1026655.1.2.3 Units=kft Length=0.23427 Rmatrix=(0.499867|0.042161     0.497871|0.0434854    0.0424567     0.500486) Xmatrix=(0.271795|0.131863     0.273449|0.125654     0.137303     0.271288)
New Line.p895112_l3048962 Phases=1 bus1=p895112.1 bus2=l3048962.1 Units=kft Length=0.084003 Rmatrix=(0.342407) Xmatrix=(0.285838)
New Line.l2991914_m1047503 Phases=3 bus1=l2991914.1.2.3 bus2=m1047503.1.2.3 Units=kft Length=0.11696 Rmatrix=(0.513099|0.0421611     0.511106|0.0434854    0.0424567     0.513718) Xmatrix=(0.282641|0.131863     0.284295|0.125655     0.137303     0.282134)
New Line.m1047503_l2841635 Phases=3 bus1=m1047503.1.2.3 bus2=l2841635.1.2.3 Units=kft Length=0.077974 Rmatrix=(0.513092|0.0421605     0.511099|0.0434848    0.0424561     0.513711) Xmatrix=(0.282637|0.131861     0.284291|0.125653     0.137301      0.28213)
New Line.m1047751_l2973154 Phases=1 bus1=m1047751.1 bus2=l2973154.1 Units=kft Length=0.030537 Rmatrix=(0.510435) Xmatrix=(0.284853)
New Line.l2973154_l2879069 Phases=1 bus1=l2973154.1 bus2=l2879069.1 Units=kft Length=0.21027 Rmatrix=(0.510439) Xmatrix=(0.284855)
New Line.l3010565_l2897775 Phases=1 bus1=l3010565.3 bus2=l2897775.3 Units=kft Length=0.46203 Rmatrix=(0.342087) Xmatrix=(0.27322)
New Line.m1125955_m1125957 Phases=1 bus1=m1125955.3 bus2=m1125957.3 Units=kft Length=0.022395 Rmatrix=(0.497987) Xmatrix=(0.273353)
New Line.m1125955_l3236004 Phases=1 bus1=m1125955.3 bus2=l3236004.3 Units=kft Length=0.37028 Rmatrix=(0.497987) Xmatrix=(0.273353)
New Line.m1125957_l2936211 Phases=1 bus1=m1125957.3 bus2=l2936211.3 Units=kft Length=0.12421 Rmatrix=(0.497987) Xmatrix=(0.273353)
New Line.m1069640_l2804269 Phases=1 bus1=m1069640.2 bus2=l2804269.2 Units=kft Length=0.33184 Rmatrix=(0.510461) Xmatrix=(0.284868)
New Line.m1069640_l3160113 Phases=1 bus1=m1069640.2 bus2=l3160113.2 Units=kft Length=0.30887 Rmatrix=(0.342078) Xmatrix=(0.273213)
New Line.l2804269_l2989564 Phases=1 bus1=l2804269.2 bus2=l2989564.2 Units=kft Length=0.20365 Rmatrix=(0.51044) Xmatrix=(0.284856)
New Line.m1026702_n1139551 Phases=3 bus1=m1026702.1.2.3 bus2=n1139551.1.2.3 Units=kft Length=0.42236 Rmatrix=(0.513953|0.042999     0.511893|0.0443669    0.0433044     0.514593) Xmatrix=(0.281919|0.131169     0.283616|0.124932     0.136602       0.2814)
New Line.m1026702_l2729414 Phases=3 bus1=m1026702.1.2.3 bus2=l2729414.1.2.3 Units=kft Length=0.16371 Rmatrix=(0.344875|0.0419096     0.342781|0.0433017    0.0422202     0.345527) Xmatrix=(0.269713|0.118439     0.272328|0.111592     0.123734     0.268906)
New Line.n1139551_m1026695 Phases=3 bus1=n1139551.1.2.3 bus2=m1026695.1.2.3 Units=kft Length=0.074112 Rmatrix=(0.513967|0.0430002     0.511907|0.0443681    0.0433056     0.514607) Xmatrix=(0.281927|0.131172     0.283623|0.124936     0.136605     0.281407)
New Line.n1136355_l2783231 Phases=1 bus1=n1136355.2 bus2=l2783231.2 Units=kft Length=0.23771 Rmatrix=(0.49799) Xmatrix=(0.273355)
New Line.l2783231_l3254227 Phases=1 bus1=l2783231.2 bus2=l3254227.2 Units=kft Length=0.49849 Rmatrix=(0.49799) Xmatrix=(0.273355)
New Line.l2748143_l3251854 Phases=1 bus1=l2748143.1 bus2=l3251854.1 Units=kft Length=0.22 Rmatrix=(0.342077) Xmatrix=(0.273212)
New Line.m1069610_m1069600 Phases=1 bus1=m1069610.2 bus2=m1069600.2 Units=kft Length=0.2 Rmatrix=(0.342079) Xmatrix=(0.273213)
New Line.m1069610_l2991929 Phases=1 bus1=m1069610.2 bus2=l2991929.2 Units=kft Length=0.1503 Rmatrix=(0.342081) Xmatrix=(0.273215)
New Line.m1069600_l3102793 Phases=1 bus1=m1069600.2 bus2=l3102793.2 Units=kft Length=0.19 Rmatrix=(0.342076) Xmatrix=(0.273211)
New Line.m1069424_l2935549 Phases=3 bus1=m1069424.1.2.3 bus2=l2935549.1.2.3 Units=kft Length=0.29067 Rmatrix=(0.201432|0.0419095     0.199338|0.0433016    0.0422201     0.202084) Xmatrix=(0.265159|0.118438     0.267774|0.111591     0.123734     0.264352)
New Line.m1069424_n1139255 Phases=1 bus1=m1069424.1 bus2=n1139255.1 Units=kft Length=0.034997 Rmatrix=(0.342073) Xmatrix=(0.273208)
New Line.l2935549_m1069420 Phases=3 bus1=l2935549.1.2.3 bus2=m1069420.1.2.3 Units=kft Length=0.31503 Rmatrix=(0.201432|0.0419095     0.199338|0.0433015    0.0422201     0.202084) Xmatrix=(0.265159|0.118438     0.267774|0.111591     0.123734     0.264352)
New Line.p895089_l3235242 Phases=1 bus1=p895089.3 bus2=l3235242.3 Units=kft Length=0.19851 Rmatrix=(0.342077) Xmatrix=(0.273212)
New Line.l3235242_m1089195 Phases=1 bus1=l3235242.3 bus2=m1089195.3 Units=kft Length=0.45151 Rmatrix=(0.342079) Xmatrix=(0.273214)
New Line.m1026795_n1140522 Phases=1 bus1=m1026795.3 bus2=n1140522.3 Units=kft Length=0.04448 Rmatrix=(0.342089) Xmatrix=(0.273222)
New Line.m1026795_m1026786 Phases=3 bus1=m1026795.1.2.3 bus2=m1026786.1.2.3 Units=kft Length=0.24201 Rmatrix=(0.513973|0.0430007     0.511913|0.0443686    0.0433061     0.514613) Xmatrix=(0.28193|0.131174     0.283626|0.124937     0.136607      0.28141)
New Line.n1140522_l2822870 Phases=1 bus1=n1140522.3 bus2=l2822870.3 Units=kft Length=0.051683 Rmatrix=(0.342081) Xmatrix=(0.273215)
New Line.l3030199_m1125934 Phases=3 bus1=l3030199.1.2.3 bus2=m1125934.1.2.3 Units=kft Length=0.096111 Rmatrix=(0.0823024|0.0335133    0.0806611|0.0346067     0.033756    0.0828142) Xmatrix=(0.212135|0.101655     0.216022|0.0939617      0.10676      0.21093)
New Line.m1125934_l2730163 Phases=3 bus1=m1125934.1.2.3 bus2=l2730163.1.2.3 Units=kft Length=0.20793 Rmatrix=(0.0823014|0.0335129      0.08066|0.0346062    0.0337555    0.0828131) Xmatrix=(0.212132|0.101653      0.21602|0.0939605     0.106758     0.210927)
New Line.m1069189_l2860487 Phases=1 bus1=m1069189.3 bus2=l2860487.3 Units=kft Length=0.28539 Rmatrix=(0.497988) Xmatrix=(0.273353)
New Line.m1069189_m1069184 Phases=3 bus1=m1069189.1.2.3 bus2=m1069184.1.2.3 Units=kft Length=0.08474 Rmatrix=(0.500747|0.0430011     0.498687|0.0443691    0.0433066     0.501387) Xmatrix=(0.271088|0.131175     0.272784|0.124939     0.136609     0.270568)
New Line.221_312488_m1089183 Phases=3 bus1=221_312488.1.2.3 bus2=m1089183.1.2.3 Units=kft Length=0.044346 Rmatrix=(0.2492|0.081204       0.2492|0.081204     0.081204       0.2492) Xmatrix=(0.0841687|0.0229731    0.0841687|0.0229731    0.0229731    0.0841687)
New Line.m1089183_l2990826 Phases=3 bus1=m1089183.1.2.3 bus2=l2990826.1.2.3 Units=kft Length=0.17086 Rmatrix=(0.249195|0.0812023     0.249195|0.0812023    0.0812023     0.249195) Xmatrix=(0.084167|0.0229726     0.084167|0.0229726    0.0229726     0.084167)
New Line.m1108464_l3102286 Phases=1 bus1=m1108464.2 bus2=l3102286.2 Units=kft Length=0.35254 Rmatrix=(0.292303) Xmatrix=(0.164989)
New Line.l3102286_m1108433 Phases=1 bus1=l3102286.2 bus2=m1108433.2 Units=kft Length=0.12811 Rmatrix=(0.292292) Xmatrix=(0.164983)
New Line.f739845_293471 Phases=3 bus1=f739845.1.2.3 bus2=293471.1.2.3 Units=kft Length=0.1 Rmatrix=(0.5131|0.0421612     0.511107|0.0434855    0.0424568     0.513719) Xmatrix=(0.282641|0.131863     0.284295|0.125655     0.137303     0.282134)
New Line.p827499_n1139254 Phases=1 bus1=p827499.1 bus2=n1139254.1 Units=kft Length=0.020919 Rmatrix=(0.51044) Xmatrix=(0.284856)
New Line.n1139254_l3122811 Phases=1 bus1=n1139254.1 bus2=l3122811.1 Units=kft Length=0.090584 Rmatrix=(0.510436) Xmatrix=(0.284853)
New Line.m1026657_m1026656 Phases=1 bus1=m1026657.1 bus2=m1026656.1 Units=kft Length=0.019719 Rmatrix=(0.510439) Xmatrix=(0.284855)
New Line.m1026656_l2729428 Phases=1 bus1=m1026656.1 bus2=l2729428.1 Units=kft Length=0.61213 Rmatrix=(0.51044) Xmatrix=(0.284856)
New Line.m1108299_m1108300 Phases=1 bus1=m1108299.2 bus2=m1108300.2 Units=kft Length=0.0223 Rmatrix=(0.510436) Xmatrix=(0.284854)
New Line.m1108300_l2711234 Phases=1 bus1=m1108300.2 bus2=l2711234.2 Units=kft Length=0.23329 Rmatrix=(0.510439) Xmatrix=(0.284856)
New Line.l3198355_l2805037 Phases=1 bus1=l3198355.2 bus2=l2805037.2 Units=kft Length=0.36357 Rmatrix=(0.498008) Xmatrix=(0.273364)
New Line.n1137994_m1069484 Phases=1 bus1=n1137994.3 bus2=m1069484.3 Units=kft Length=0.18494 Rmatrix=(0.497202) Xmatrix=(0.274009)
New Line.m1069484_l2785517 Phases=1 bus1=m1069484.3 bus2=l2785517.3 Units=kft Length=0.40859 Rmatrix=(0.497205) Xmatrix=(0.27401)
New Line.l2860504_l2860493 Phases=1 bus1=l2860504.1 bus2=l2860493.1 Units=kft Length=0.68367 Rmatrix=(0.342075) Xmatrix=(0.27321)
New Line.l2860493_l3085403 Phases=1 bus1=l2860493.1 bus2=l3085403.1 Units=kft Length=0.28743 Rmatrix=(0.342079) Xmatrix=(0.273213)
New Line.m1026783_m1026780 Phases=3 bus1=m1026783.1.2.3 bus2=m1026780.1.2.3 Units=kft Length=0.058781 Rmatrix=(0.513962|0.0429998     0.511902|0.0443677    0.0433052     0.514602) Xmatrix=(0.281924|0.131171     0.283621|0.124935     0.136604     0.281405)
New Line.m1026783_n1140524 Phases=1 bus1=m1026783.1 bus2=n1140524.1 Units=kft Length=0.096201 Rmatrix=(0.342076) Xmatrix=(0.273211)
New Line.m1026783_m1026784 Phases=1 bus1=m1026783.3 bus2=m1026784.3 Units=kft Length=0.026743 Rmatrix=(0.510437) Xmatrix=(0.284854)
New Line.m1026780_m1026774 Phases=3 bus1=m1026780.1.2.3 bus2=m1026774.1.2.3 Units=kft Length=0.35129 Rmatrix=(0.513956|0.0429992     0.511895|0.0443671    0.0433046     0.514596) Xmatrix=(0.281921|0.131169     0.283617|0.124933     0.136602     0.281401)
New Line.p895111_l2895496 Phases=1 bus1=p895111.3 bus2=l2895496.3 Units=kft Length=0.22918 Rmatrix=(0.342075) Xmatrix=(0.273211)
New Line.l2895496_m1142873 Phases=1 bus1=l2895496.3 bus2=m1142873.3 Units=kft Length=0.16588 Rmatrix=(0.342075) Xmatrix=(0.273211)
New Line.n1140819_m1026700 Phases=3 bus1=n1140819.1.2.3 bus2=m1026700.1.2.3 Units=kft Length=0.088355 Rmatrix=(0.513979|0.0430012     0.511919|0.0443692    0.0433066      0.51462) Xmatrix=(0.281934|0.131175      0.28363|0.124939     0.136609     0.281414)
New Line.m1026700_m1026706 Phases=3 bus1=m1026700.1.2.3 bus2=m1026706.1.2.3 Units=kft Length=0.28051 Rmatrix=(0.51397|0.0430004      0.51191|0.0443684    0.0433058      0.51461) Xmatrix=(0.281929|0.131173     0.283625|0.124936     0.136606     0.281409)
New Line.m1026700_n1140823 Phases=3 bus1=m1026700.1.2.3 bus2=n1140823.1.2.3 Units=kft Length=0.12142 Rmatrix=(0.513097|0.0421609     0.511104|0.0434852    0.0424565     0.513716) Xmatrix=(0.282639|0.131863     0.284294|0.125654     0.137302     0.282132)
New Line.m1026700_n1140820 Phases=1 bus1=m1026700.2 bus2=n1140820.2 Units=kft Length=0.072589 Rmatrix=(0.510435) Xmatrix=(0.284853)
New Line.m1026700_n1140821 Phases=1 bus1=m1026700.3 bus2=n1140821.3 Units=kft Length=0.036583 Rmatrix=(0.510082) Xmatrix=(0.272215)
New Line.m1089173_l2935551 Phases=1 bus1=m1089173.3 bus2=l2935551.3 Units=kft Length=0.19966 Rmatrix=(0.497991) Xmatrix=(0.273355)
New Line.m1089173_m1089174 Phases=1 bus1=m1089173.3 bus2=m1089174.3 Units=kft Length=0.097002 Rmatrix=(0.511218) Xmatrix=(0.284198)
New Line.m1089173_l2673307 Phases=1 bus1=m1089173.3 bus2=l2673307.3 Units=kft Length=0.27588 Rmatrix=(0.49799) Xmatrix=(0.273355)
New Line.l2935551_d5746546_1_int Phases=1 bus1=l2935551.3 bus2=d5746546_1_int.3 Units=kft Length=0.10512 Rmatrix=(0.497983) Xmatrix=(0.273351)
New Line.m1026344_m1026364 Phases=1 bus1=m1026344.1 bus2=m1026364.1 Units=kft Length=0.9667 Rmatrix=(0.342077) Xmatrix=(0.273212)
New Line.m1026344_l2991919 Phases=1 bus1=m1026344.1 bus2=l2991919.1 Units=kft Length=0.42374 Rmatrix=(0.497217) Xmatrix=(0.274017)
New Line.m1026364_l3010570 Phases=1 bus1=m1026364.1 bus2=l3010570.1 Units=kft Length=0.19605 Rmatrix=(0.342079) Xmatrix=(0.273214)
New Line.l2879070_l3216345 Phases=3 bus1=l2879070.1.2.3 bus2=l3216345.1.2.3 Units=kft Length=0.29298 Rmatrix=(0.201433|0.0419098     0.199339|0.0433018    0.0422204     0.202085) Xmatrix=(0.26516|0.118439     0.267776|0.111592     0.123735     0.264353)
New Line.l3216345_m3768670 Phases=3 bus1=l3216345.1.2.3 bus2=m3768670.1.2.3 Units=kft Length=0.2487 Rmatrix=(0.201434|0.0419098      0.19934|0.0433019    0.0422204     0.202085) Xmatrix=(0.265161|0.118439     0.267776|0.111592     0.123735     0.264354)
New Line.m1069428_m1069424 Phases=3 bus1=m1069428.1.2.3 bus2=m1069424.1.2.3 Units=kft Length=0.25151 Rmatrix=(0.201433|0.0419097     0.199339|0.0433018    0.0422203     0.202085) Xmatrix=(0.26516|0.118439     0.267776|0.111592     0.123735     0.264353)
New Line.m1069428_n1139257 Phases=1 bus1=m1069428.2 bus2=n1139257.2 Units=kft Length=0.054057 Rmatrix=(0.314583) Xmatrix=(0.244284)
New Line.m1069428_p827576 Phases=1 bus1=m1069428.2 bus2=p827576.2 Units=kft Length=0.031201 Rmatrix=(0.342076) Xmatrix=(0.273212)
New Line.n1139257_l3029518 Phases=1 bus1=n1139257.2 bus2=l3029518.2 Units=kft Length=0.089431 Rmatrix=(0.31457) Xmatrix=(0.244274)
New Line.l2991919_m1026361 Phases=1 bus1=l2991919.1 bus2=m1026361.1 Units=kft Length=0.27983 Rmatrix=(0.497201) Xmatrix=(0.274008)
New Line.m1026361_l3122825 Phases=1 bus1=m1026361.1 bus2=l3122825.1 Units=kft Length=0.06059 Rmatrix=(0.314577) Xmatrix=(0.24428)
New Line.m1026361_m1026366 Phases=1 bus1=m1026361.1 bus2=m1026366.1 Units=kft Length=0.22954 Rmatrix=(0.4972) Xmatrix=(0.274007)
New Line.n1147857_m1009742 Phases=1 bus1=n1147857.1 bus2=m1009742.1 Units=kft Length=0.17964 Rmatrix=(0.510437) Xmatrix=(0.284854)
New Line.m1009742_p901972 Phases=1 bus1=m1009742.1 bus2=p901972.1 Units=kft Length=0.039254 Rmatrix=(0.498003) Xmatrix=(0.273362)
New Line.q14412_m1047325 Phases=3 bus1=q14412.1.2.3 bus2=m1047325.1.2.3 Units=kft Length=0.11137 Rmatrix=(0.513101|0.0421612     0.511107|0.0434855    0.0424568     0.513719) Xmatrix=(0.282641|0.131864     0.284296|0.125655     0.137303     0.282134)
New Line.m1047325_p827532 Phases=1 bus1=m1047325.1 bus2=p827532.1 Units=kft Length=0.031597 Rmatrix=(0.342077) Xmatrix=(0.273212)
New Line.m1047325_m1047324 Phases=3 bus1=m1047325.1.2.3 bus2=m1047324.1.2.3 Units=kft Length=0.03013 Rmatrix=(0.513099|0.0421611     0.511106|0.0434854    0.0424567     0.513718) Xmatrix=(0.28264|0.131863     0.284295|0.125654     0.137303     0.282134)
New Line.n1139263_l3048227 Phases=1 bus1=n1139263.1 bus2=l3048227.1 Units=kft Length=0.085259 Rmatrix=(0.510438) Xmatrix=(0.284855)
New Line.p827506_m1069469 Phases=1 bus1=p827506.1 bus2=m1069469.1 Units=kft Length=0.02313 Rmatrix=(0.510439) Xmatrix=(0.284855)
New Line.m1069469_n1139263 Phases=1 bus1=m1069469.1 bus2=n1139263.1 Units=kft Length=0.027137 Rmatrix=(0.510433) Xmatrix=(0.284852)
New Line.m1069469_m1069467 Phases=1 bus1=m1069469.1 bus2=m1069467.1 Units=kft Length=0.070039 Rmatrix=(0.342079) Xmatrix=(0.273214)
New Line.m1027019_l2785522 Phases=1 bus1=m1027019.2 bus2=l2785522.2 Units=kft Length=0.19813 Rmatrix=(0.342079) Xmatrix=(0.273214)
New Line.m1027019_l2801949 Phases=1 bus1=m1027019.2 bus2=l2801949.2 Units=kft Length=0.6736 Rmatrix=(0.342074) Xmatrix=(0.273209)
New Line.l3216338_l2973146 Phases=1 bus1=l3216338.2 bus2=l2973146.2 Units=kft Length=0.1922 Rmatrix=(0.342076) Xmatrix=(0.273211)
New Line.m3037452_l2973164 Phases=1 bus1=m3037452.1 bus2=l2973164.1 Units=kft Length=0.23442 Rmatrix=(0.510438) Xmatrix=(0.284855)
New Line.m3037452_m1026387 Phases=1 bus1=m3037452.1 bus2=m1026387.1 Units=kft Length=0.3901 Rmatrix=(0.497984) Xmatrix=(0.273351)
New Line.l3120376_m1026925 Phases=1 bus1=l3120376.1 bus2=m1026925.1 Units=kft Length=0.29309 Rmatrix=(0.511222) Xmatrix=(0.2842)
New Line.m1026925_l2916599 Phases=1 bus1=m1026925.1 bus2=l2916599.1 Units=kft Length=0.051104 Rmatrix=(0.510451) Xmatrix=(0.284862)
New Line.m1026925_l3235249 Phases=1 bus1=m1026925.1 bus2=l3235249.1 Units=kft Length=0.36192 Rmatrix=(0.511201) Xmatrix=(0.284188)
New Line.m1047612_p828360 Phases=1 bus1=m1047612.3 bus2=p828360.3 Units=kft Length=0.017624 Rmatrix=(0.292289) Xmatrix=(0.164981)
New Line.p828360_l2729206 Phases=1 bus1=p828360.3 bus2=l2729206.3 Units=kft Length=0.10334 Rmatrix=(0.292292) Xmatrix=(0.164983)
New Line.m1089195_l3141393 Phases=1 bus1=m1089195.3 bus2=l3141393.3 Units=kft Length=0.36986 Rmatrix=(0.342065) Xmatrix=(0.273202)
New Line.m1026946_m1026940 Phases=1 bus1=m1026946.2 bus2=m1026940.2 Units=kft Length=0.42182 Rmatrix=(0.510437) Xmatrix=(0.284854)
New Line.m1026940_m1026935 Phases=1 bus1=m1026940.2 bus2=m1026935.2 Units=kft Length=0.37683 Rmatrix=(0.342088) Xmatrix=(0.273221)
New Line.m1026940_m1026939 Phases=1 bus1=m1026940.2 bus2=m1026939.2 Units=kft Length=0.21592 Rmatrix=(0.510437) Xmatrix=(0.284854)
New Line.m1047471_l3216349 Phases=1 bus1=m1047471.2 bus2=l3216349.2 Units=kft Length=0.060366 Rmatrix=(0.342083) Xmatrix=(0.273216)
New Line.m1047471_l2879077 Phases=1 bus1=m1047471.2 bus2=l2879077.2 Units=kft Length=0.31325 Rmatrix=(0.342078) Xmatrix=(0.273213)
New Line.m1047471_l2973180 Phases=1 bus1=m1047471.2 bus2=l2973180.2 Units=kft Length=0.24987 Rmatrix=(0.342078) Xmatrix=(0.273213)
New Line.m1047401_l2748132 Phases=1 bus1=m1047401.1 bus2=l2748132.1 Units=kft Length=0.18391 Rmatrix=(0.510434) Xmatrix=(0.284853)
New Line.m1047401_m1047403 Phases=1 bus1=m1047401.1 bus2=m1047403.1 Units=kft Length=0.145 Rmatrix=(0.342075) Xmatrix=(0.273211)
New Line.l2748132_l2689726 Phases=1 bus1=l2748132.1 bus2=l2689726.1 Units=kft Length=0.84082 Rmatrix=(0.51043) Xmatrix=(0.28485)
New Line.l3122820_l3141398 Phases=1 bus1=l3122820.1 bus2=l3141398.1 Units=kft Length=0.19491 Rmatrix=(0.342079) Xmatrix=(0.273213)
New Line.m1108360_l3048968 Phases=1 bus1=m1108360.3 bus2=l3048968.3 Units=kft Length=0.18037 Rmatrix=(0.510439) Xmatrix=(0.284855)
New Line.l2801950_m1069224 Phases=1 bus1=l2801950.3 bus2=m1069224.3 Units=kft Length=0.10794 Rmatrix=(0.482602) Xmatrix=(0.243292)
New Line.m1069224_m1069218 Phases=1 bus1=m1069224.3 bus2=m1069218.3 Units=kft Length=0.39248 Rmatrix=(0.510442) Xmatrix=(0.284857)
New Line.m1069224_m1069226 Phases=1 bus1=m1069224.3 bus2=m1069226.3 Units=kft Length=0.40414 Rmatrix=(0.497197) Xmatrix=(0.274006)
New Line.l2766746_m1027073 Phases=1 bus1=l2766746.3 bus2=m1027073.3 Units=kft Length=0.36247 Rmatrix=(0.342078) Xmatrix=(0.273213)
New Line.m1027073_m1027071 Phases=1 bus1=m1027073.3 bus2=m1027071.3 Units=kft Length=0.31439 Rmatrix=(0.342076) Xmatrix=(0.273211)
New Line.m1027073_l2879089 Phases=1 bus1=m1027073.3 bus2=l2879089.3 Units=kft Length=0.15184 Rmatrix=(0.342076) Xmatrix=(0.273211)
New Line.m1027073_l3104118 Phases=1 bus1=m1027073.3 bus2=l3104118.3 Units=kft Length=0.26801 Rmatrix=(0.342079) Xmatrix=(0.273214)
New Line.m1142873_l3552667 Phases=1 bus1=m1142873.3 bus2=l3552667.3 Units=kft Length=0.18149 Rmatrix=(0.342076) Xmatrix=(0.273211)
New Line.m1069181_l2973151 Phases=1 bus1=m1069181.1 bus2=l2973151.1 Units=kft Length=0.24748 Rmatrix=(0.510439) Xmatrix=(0.284855)
New Line.m1069181_l2804253 Phases=1 bus1=m1069181.1 bus2=l2804253.1 Units=kft Length=0.060312 Rmatrix=(0.342073) Xmatrix=(0.273209)
New Line.m1069181_l2748146 Phases=1 bus1=m1069181.1 bus2=l2748146.1 Units=kft Length=0.32556 Rmatrix=(0.510439) Xmatrix=(0.284855)
New Line.l2973151_m1069187 Phases=1 bus1=l2973151.1 bus2=m1069187.1 Units=kft Length=0.25185 Rmatrix=(0.510435) Xmatrix=(0.284853)
New Line.l3179682_l2786274 Phases=1 bus1=l3179682.3 bus2=l2786274.3 Units=kft Length=0.090974 Rmatrix=(0.510436) Xmatrix=(0.284854)
New Line.l3066816_m1026667 Phases=1 bus1=l3066816.1 bus2=m1026667.1 Units=kft Length=0.3985 Rmatrix=(0.34207) Xmatrix=(0.273207)
New Line.m1026667_m1026661 Phases=1 bus1=m1026667.1 bus2=m1026661.1 Units=kft Length=0.1814 Rmatrix=(0.342079) Xmatrix=(0.273214)
New Line.m1108529_m1108532 Phases=3 bus1=m1108529.1.2.3 bus2=m1108532.1.2.3 Units=kft Length=0.081394 Rmatrix=(0.082302|0.0335132    0.0806607|0.0346065    0.0337558    0.0828138) Xmatrix=(0.212134|0.101654     0.216021|0.0939613     0.106759     0.210929)
New Line.m1108529_p829796 Phases=1 bus1=m1108529.3 bus2=p829796.3 Units=kft Length=0.020006 Rmatrix=(0.510436) Xmatrix=(0.284854)
New Line.m1108532_m1108535 Phases=3 bus1=m1108532.1.2.3 bus2=m1108535.1.2.3 Units=kft Length=0.30507 Rmatrix=(0.0823015|0.033513    0.0806602|0.0346063    0.0337556    0.0828133) Xmatrix=(0.212132|0.101654      0.21602|0.0939607     0.106759     0.210927)
...
New Reactor.HVMV_Sub_HSB Bus1=SourceBus Bus2=HVMV_Sub_HSB R=0 X=14.7983 Normamps=400 Emergamps=400
New Transformer.HVMV_Sub Buses=[HVMV_Sub_HSB regxfmr_HVMV_Sub_LSB.1.2.3.0] Conns=[delta wye] Phases=3 Windings=2 XHL=15.51 kVAs=[27500  27500] kVs=[115         12.47] sub=y Wdg=1 %R=0.67202 Wdg=2 %R=0.67202
New Transformer.FEEDER_REGA Buses=[regxfmr_HVMV_Sub_LSB.1 _HVMV_Sub_LSB.1] Conns=[wye wye] %Loadloss=0.001 MaxTap=1.1 MinTap=0.9 Phases=1 Ppm_Antifloat=0 Windings=2 XHL=0.1 kVAs=[27500  27500] kVs=[7.2         7.2]
New Transformer.FEEDER_REGB Buses=[regxfmr_HVMV_Sub_LSB.2 _HVMV_Sub_LSB.2] Conns=[wye wye] %Loadloss=0.001 MaxTap=1.1 MinTap=0.9 Phases=1 Ppm_Antifloat=0 Windings=2 XHL=0.1 kVAs=[27500  27500] kVs=[7.2         7.2]
New Transformer.FEEDER_REGC Buses=[regxfmr_HVMV_Sub_LSB.3 _HVMV_Sub_LSB.3] Conns=[wye wye] %Loadloss=0.001 MaxTap=1.1 MinTap=0.9 Phases=1 Ppm_Antifloat=0 Windings=2 XHL=0.1 kVAs=[27500  27500] kVs=[7.2         7.2]
New Transformer.T21396254A %Noloadloss=0.2 Phases=1 %Rs=[0.6         1.2         1.2] Windings=3 XHL=2.04 XHT=2.04 XLT=1.36 %imag=0.5 Wdg=1 Bus=L2804253.1 kV=7.2 kVA=15 Wdg=2 Bus=X2804253A.1.0 kV=0.12 kVA=15 Wdg=3 Bus=X2804253A.0.2 kV=0.12 kVA=15
New Transformer.T5321859B %Noloadloss=0.2 Phases=1 %Rs=[0.6         1.2         1.2] Windings=3 XHL=2.04 XHT=2.04 XLT=1.36 %imag=0.5 Wdg=1 Bus=L3254213.2 kV=7.2 kVA=25 Wdg=2 Bus=X3254213B.1.0 kV=0.12 kVA=25 Wdg=3 Bus=X3254213B.0.2 kV=0.12 kVA=25
New Transformer.T5391741B %Noloadloss=0.2 Phases=1 %Rs=[0.6         1.2         1.2] Windings=3 XHL=2.04 XHT=2.04 XLT=1.36 %imag=0.5 Wdg=1 Bus=L3216339.2 kV=7.2 kVA=25 Wdg=2 Bus=X3216339B.1.0 kV=0.12 kVA=25 Wdg=3 Bus=X3216339B.0.2 kV=0.12 kVA=25
New Transformer.T5293672A %Noloadloss=0.2 Phases=1 %Rs=[0.6         1.2         1.2] Windings=3 XHL=2.04 XHT=2.04 XLT=1.36 %imag=0.5 Wdg=1 Bus=L2954355.1 kV=7.2 kVA=15 Wdg=2 Bus=X2954355A.1.0 kV=0.12 kVA=15 Wdg=3 Bus=X2954355A.0.2 kV=0.12 kVA=15
New Transformer.T21474711C %Noloadloss=0.2 Phases=1 %Rs=[0.6         1.2         1.2] Windings=3 XHL=2.04 XHT=2.04 XLT=1.36 %imag=0.5 Wdg=1 Bus=L2861197.3 kV=7.2 kVA=15 Wdg=2 Bus=X2861197C.1.0 kV=0.12 kVA=15 Wdg=3 Bus=X2861197C.0.2 kV=0.12 kVA=15
New Transformer.T5260488A %Noloadloss=0.2 Phases=1 %Rs=[0.6         1.2         1.2] Windings=3 XHL=2.04 XHT=2.04 XLT=1.36 %imag=0.5 Wdg=1 Bus=L2842379.1 kV=7.2 kVA=37.5 Wdg=2 Bus=X2842379A.1.0 kV=0.12 kVA=37.5 Wdg=3 Bus=X2842379A.0.2 kV=0.12 kVA=37.5
New Transformer.T5391758B %Noloadloss=0.2 Phases=1 %Rs=[0.6         1.2         1.2] Windings=3 XHL=2.04 XHT=2.04 XLT=1.36 %imag=0.5 Wdg=1 Bus=L2841636.2 kV=7.2 kVA=15 Wdg=2 Bus=X2841636B.1.0 kV=0.12 kVA=15 Wdg=3 Bus=X2841636B.0.2 kV=0.12 kVA=15
New Transformer.T228091193A %Noloadloss=0.2 Phases=1 %Rs=[0.6         1.2         1.2] Windings=3 XHL=2.04 XHT=2.04 XLT=1.36 %imag=0.5 Wdg=1 Bus=L3047289.1 kV=7.2 kVA=50 Wdg=2 Bus=X3047289A.1.0 kV=0.12 kVA=50 Wdg=3 Bus=X3047289A.0.2 kV=0.12 kVA=50
New Transformer.T228091193B %Noloadloss=0.2 Phases=1 %Rs=[0.6         1.2         1.2] Windings=3 XHL=2.04 XHT=2.04 XLT=1.36 %imag=0.5 Wdg=1 Bus=L3047289.2 kV=7.2 kVA=50 Wdg=2 Bus=X3047289B.1.0 kV=0.12 kVA=50 Wdg=3 Bus=X3047289B.0.2 kV=0.12 kVA=50
New Transformer.T228091193C %Noloadloss=0.2 Phases=1 %Rs=[0.6         1.2         1.2] Windings=3 XHL=2.04 XHT=2.04 XLT=1.36 %imag=0.5 Wdg=1 Bus=L3047289.3 kV=7.2 kVA=50 Wdg=2 Bus=X3047289C.1.0 kV=0.12 kVA=50 Wdg=3 Bus=X3047289C.0.2 kV=0.12 kVA=50
New Transformer.T5302862C %Noloadloss=0.2 Phases=1 %Rs=[0.6         1.2         1.2] Windings=3 XHL=2.04 XHT=2.04 XLT=1.36 %imag=0.5 Wdg=1 Bus=L3085399.3 kV=7.2 kVA=15 Wdg=2 Bus=X3085399C.1.0 kV=0.12 kVA=15 Wdg=3 Bus=X3085399C.0.2 kV=0.12 kVA=15
New Transformer.T21236413B %Noloadloss=0.2 Phases=1 %Rs=[0.6         1.2         1.2] Windings=3 XHL=2.04 XHT=2.04 XLT=1.36 %imag=0.5 Wdg=1 Bus=L3085391.2 kV=7.2 kVA=50 Wdg=2 Bus=X3085391B.1.0 kV=0.12 kVA=50 Wdg=3 Bus=X3085391B.0.2 kV=0.12 kVA=50
New Transformer.T5302468A %Noloadloss=0.2 Phases=1 %Rs=[0.6         1.2         1.2] Windings=3 XHL=2.04 XHT=2.04 XLT=1.36 %imag=0.5 Wdg=1 Bus=L2897778.1 kV=7.2 kVA=10 Wdg=2 Bus=X2897778A.1.0 kV=0.12 kVA=10 Wdg=3 Bus=X2897778A.0.2 kV=0.12 kVA=10
New Transformer.T5294787A %Noloadloss=0.2 Phases=1 %Rs=[0.6         1.2         1.2] Windings=3 XHL=2.04 XHT=2.04 XLT=1.36 %imag=0.5 Wdg=1 Bus=L3197647.1 kV=7.2 kVA=10 Wdg=2 Bus=X3197647A.1.0 kV=0.12 kVA=10 Wdg=3 Bus=X3197647A.0.2 kV=0.12 kVA=10
New Transformer.T5157715B %Noloadloss=0.2 Phases=1 %Rs=[0.6         1.2         1.2] Windings=3 XHL=2.04 XHT=2.04 XLT=1.36 %imag=0.5 Wdg=1 Bus=L2936275.2 kV=7.2 kVA=10 Wdg=2 Bus=X2936275B.1.0 kV=0.12 kVA=10 Wdg=3 Bus=X2936275B.0.2 kV=0.12 kVA=10
New Transformer.T5355768B %Noloadloss=0.2 Phases=1 %Rs=[0.6         1.2         1.2] Windings=3 XHL=2.04 XHT=2.04 XLT=1.36 %imag=0.5 Wdg=1 Bus=L2729408.2 kV=7.2 kVA=25 Wdg=2 Bus=X2729408B.1.0 kV=0.12 kVA=25 Wdg=3 Bus=X2729408B.0.2 kV=0.12 kVA=25
New Transformer.T5138562A %Noloadloss=0.2 Phases=1 %Rs=[0.6         1.2         1.2] Windings=3 XHL=2.04 XHT=2.04 XLT=1.36 %imag=0.5 Wdg=1 Bus=L2673310.1 kV=7.2 kVA=25 Wdg=2 Bus=X2673310A.1.0 kV=0.12 kVA=25 Wdg=3 Bus=X2673310A.0.2 kV=0.12 kVA=25
New Transformer.T5355934A %Noloadloss=0.2 Phases=1 %Rs=[0.6         1.2         1.2] Windings=3 XHL=2.04 XHT=2.04 XLT=1.36 %imag=0.5 Wdg=1 Bus=L3048212.1 kV=7.2 kVA=10 Wdg=2 Bus=X3048212A.1.0 kV=0.12 kVA=10 Wdg=3 Bus=X3048212A.0.2 kV=0.12 kVA=10
New Transformer.T5293483A %Noloadloss=0.2 Phases=1 %Rs=[0.6         1.2         1.2] Windings=3 XHL=2.04 XHT=2.04 XLT=1.36 %imag=0.5 Wdg=1 Bus=L3104133.1 kV=7.2 kVA=25 Wdg=2 Bus=X3104133A.1.0 kV=0.12 kVA=25 Wdg=3 Bus=X3104133A.0.2 kV=0.12 kVA=25
New Transformer.T21399762A %Noloadloss=0.2 Phases=1 %Rs=[0.6         1.2         1.2] Windings=3 XHL=2.04 XHT=2.04 XLT=1.36 %imag=0.5 Wdg=1 Bus=L2879087.1 kV=7.2 kVA=15 Wdg=2 Bus=X2879087A.1.0 kV=0.12 kVA=15 Wdg=3 Bus=X2879087A.0.2 kV=0.12 kVA=15
New Transformer.T5138650C %Noloadloss=0.2 Phases=1 %Rs=[0.6         1.2         1.2] Windings=3 XHL=2.04 XHT=2.04 XLT=1.36 %imag=0.5 Wdg=1 Bus=L2710510.3 kV=7.2 kVA=10 Wdg=2 Bus=X2710510C.1.0 kV=0.12 kVA=10 Wdg=3 Bus=X2710510C.0.2 kV=0.12 kVA=10
New Transformer.T5323242B %Noloadloss=0.2 Phases=1 %Rs=[0.6         1.2         1.2] Windings=3 XHL=2.04 XHT=2.04 XLT=1.36 %imag=0.5 Wdg=1 Bus=L3122810.2 kV=7.2 kVA=25 Wdg=2 Bus=X3122810B.1.0 kV=0.12 kVA=25 Wdg=3 Bus=X3122810B.0.2 kV=0.12 kVA=25
New Transformer.T28127090C %Noloadloss=0.2 Phases=1 %Rs=[0.6         1.2         1.2] Windings=3 XHL=2.04 XHT=2.04 XLT=1.36 %imag=0.5 Wdg=1 Bus=L2954352.3 kV=7.2 kVA=25 Wdg=2 Bus=X2954352C.1.0 kV=0.12 kVA=25 Wdg=3 Bus=X2954352C.0.2 kV=0.12 kVA=25
New Transformer.T5138769A %Noloadloss=0.2 Phases=1 %Rs=[0.6         1.2         1.2] Windings=3 XHL=2.04 XHT=2.04 XLT=1.36 %imag=0.5 Wdg=1 Bus=L2729411.1 kV=7.2 kVA=10 Wdg=2 Bus=X2729411A.1.0 kV=0.12 kVA=10 Wdg=3 Bus=X2729411A.0.2 kV=0.12 kVA=10
New Transformer.T5338896A %Noloadloss=0.2 Phases=1 %Rs=[0.6         1.2         1.2] Windings=3 XHL=2.04 XHT=2.04 XLT=1.36 %imag=0.5 Wdg=1 Bus=L3178971.1 kV=7.2 kVA=15 Wdg=2 Bus=X3178971A.1.0 kV=0.12 kVA=15 Wdg=3 Bus=X3178971A.0.2 kV=0.12 kVA=15
New Transformer.T5355586B %Noloadloss=0.2 Phases=1 %Rs=[0.6         1.2         1.2] Windings=3 XHL=2.04 XHT=2.04 XLT=1.36 %imag=0.5 Wdg=1 Bus=L3254234.2 kV=7.2 kVA=25 Wdg=2 Bus=X3254234B.1.0 kV=0.12 kVA=25 Wdg=3 Bus=X3254234B.0.2 kV=0.12 kVA=25
New Transformer.T5293471A %Noloadloss=0.2 Phases=1 %Rs=[0.6         1.2         1.2] Windings=3 XHL=2.04 XHT=2.04 XLT=1.36 %imag=0.5 Wdg=1 Bus=293471.1 kV=7.2 kVA=25 Wdg=2 Bus=X_293471A.1.0 kV=0.12 kVA=25 Wdg=3 Bus=X_293471A.0.2 kV=0.12 kVA=25
New Transformer.T5293471B %Noloadloss=0.2 Phases=1 %Rs=[0.6         1.2         1.2] Windings=3 XHL=2.04 XHT=2.04 XLT=1.36 %imag=0.5 Wdg=1 Bus=293471.2 kV=7.2 kVA=25 Wdg=2 Bus=X_293471B.1.0 kV=0.12 kVA=25 Wdg=3 Bus=X_293471B.0.2 kV=0.12 kVA=25
New Transformer.T5293471C %Noloadloss=0.2 Phases=1 %Rs=[0.6         1.2         1.2] Windings=3 XHL=2.04 XHT=2.04 XLT=1.36 %imag=0.5 Wdg=1 Bus=293471.3 kV=7.2 kVA=25 Wdg=2 Bus=X_293471C.1.0 kV=0.12 kVA=25 Wdg=3 Bus=X_293471C.0.2 kV=0.12 kVA=25
New Transformer.T5338954A %Noloadloss=0.2 Phases=1 %Rs=[0.6         1.2         1.2] Windings=3 XHL=2.04 XHT=2.04 XLT=1.36 %imag=0.5 Wdg=1 Bus=L2860482.1 kV=7.2 kVA=25 Wdg=2 Bus=X2860482A.1.0 kV=0.12 kVA=25 Wdg=3 Bus=X2860482A.0.2 kV=0.12 kVA=25
New Transformer.T21459629C %Noloadloss=0.2 Phases=1 %Rs=[0.6         1.2         1.2] Windings=3 XHL=2.04 XHT=2.04 XLT=1.36 %imag=0.5 Wdg=1 Bus=L2763811.3 kV=7.2 kVA=75 Wdg=2 Bus=X2763811C.1.0 kV=0.12 kVA=75 Wdg=3 Bus=X2763811C.0.2 kV=0.12 kVA=75
New Transformer.T5260562A %Noloadloss=0.2 Phases=1 %Rs=[0.6         1.2         1.2] Windings=3 XHL=2.04 XHT=2.04 XLT=1.36 %imag=0.5 Wdg=1 Bus=L3251799.1 kV=7.2 kVA=37.5 Wdg=2 Bus=X3251799A.1.0 kV=0.12 kVA=37.5 Wdg=3 Bus=X3251799A.0.2 kV=0.12 kVA=37.5
New Transformer.T21393486C %Noloadloss=0.2 Phases=1 %Rs=[0.6         1.2         1.2] Windings=3 XHL=2.04 XHT=2.04 XLT=1.36 %imag=0.5 Wdg=1 Bus=L2898526.3 kV=7.2 kVA=15 Wdg=2 Bus=X2898526C.1.0 kV=0.12 kVA=15 Wdg=3 Bus=X2898526C.0.2 kV=0.12 kVA=15
New Transformer.T5293518B %Noloadloss=0.2 Phases=1 %Rs=[0.6         1.2         1.2] Windings=3 XHL=2.04 XHT=2.04 XLT=1.36 %imag=0.5 Wdg=1 Bus=L2897780.2 kV=7.2 kVA=25 Wdg=2 Bus=X2897780B.1.0 kV=0.12 kVA=25 Wdg=3 Bus=X2897780B.0.2 kV=0.12 kVA=25
New Transformer.T226195194C %Noloadloss=0.2 Phases=1 %Rs=[0.6         1.2         1.2] Windings=3 XHL=2.04 XHT=2.04 XLT=1.36 %imag=0.5 Wdg=1 Bus=L3027124.3 kV=7.2 kVA=25 Wdg=2 Bus=X3027124C.1.0 kV=0.12 kVA=25 Wdg=3 Bus=X3027124C.0.2 kV=0.12 kVA=25
New Transformer.T21383494B %Noloadloss=0.2 Phases=1 %Rs=[0.6         1.2         1.2] Windings=3 XHL=2.04 XHT=2.04 XLT=1.36 %imag=0.5 Wdg=1 Bus=L2954361.2 kV=7.2 kVA=25 Wdg=2 Bus=X2954361B.1.0 kV=0.12 kVA=25 Wdg=3 Bus=X2954361B.0.2 kV=0.12 kVA=25
New Transformer.T5251863C %Noloadloss=0.2 Phases=1 %Rs=[0.6         1.2         1.2] Windings=3 XHL=2.04 XHT=2.04 XLT=1.36 %imag=0.5 Wdg=1 Bus=L2745811.3 kV=7.2 kVA=25 Wdg=2 Bus=X2745811C.1.0 kV=0.12 kVA=25 Wdg=3 Bus=X2745811C.0.2 kV=0.12 kVA=25
New Transformer.T5293645A %Noloadloss=0.2 Phases=1 %Rs=[0.6         1.2         1.2] Windings=3 XHL=2.04 XHT=2.04 XLT=1.36 %imag=0.5 Wdg=1 Bus=L2841633.1 kV=7.2 kVA=25 Wdg=2 Bus=X2841633A.1.0 kV=0.12 kVA=25 Wdg=3 Bus=X2841633A.0.2 kV=0.12 kVA=25
New Transformer.T21482431A %Noloadloss=0.2 Phases=1 %Rs=[0.6         1.2         1.2] Windings=3 XHL=2.04 XHT=2.04 XLT=1.36 %imag=0.5 Wdg=1 Bus=L2917359.1 kV=7.2 kVA=15 Wdg=2 Bus=X2917359A.1.0 kV=0.12 kVA=15 Wdg=3 Bus=X2917359A.0.2 kV=0.12 kVA=15
New Transformer.T5293480A %Noloadloss=0.2 Phases=1 %Rs=[0.6         1.2         1.2] Windings=3 XHL=2.04 XHT=2.04 XLT=1.36 %imag=0.5 Wdg=1 Bus=L2748158.1 kV=7.2 kVA=15 Wdg=2 Bus=X2748158A.1.0 kV=0.12 kVA=15 Wdg=3 Bus=X2748158A.0.2 kV=0.12 kVA=15
New Transformer.T21469911A %Noloadloss=0.2 Phases=1 %Rs=[0.6         1.2         1.2] Windings=3 XHL=2.04 XHT=2.04 XLT=1.36 %imag=0.5 Wdg=1 Bus=L2955047.1 kV=7.2 kVA=25 Wdg=2 Bus=X2955047A.1.0 kV=0.12 kVA=25 Wdg=3 Bus=X2955047A.0.2 kV=0.12 kVA=25
New Transformer.T5355432C %Noloadloss=0.2 Phases=1 %Rs=[0.6         1.2         1.2] Windings=3 XHL=2.04 XHT=2.04 XLT=1.36 %imag=0.5 Wdg=1 Bus=L3122837.3 kV=7.2 kVA=37.5 Wdg=2 Bus=X3122837C.1.0 kV=0.12 kVA=37.5 Wdg=3 Bus=X3122837C.0.2 kV=0.12 kVA=37.5
New Transformer.T5323285B %Noloadloss=0.2 Phases=1 %Rs=[0.6         1.2         1.2] Windings=3 XHL=2.04 XHT=2.04 XLT=1.36 %imag=0.5 Wdg=1 Bus=L2804269.2 kV=7.2 kVA=25 Wdg=2 Bus=X2804269B.1.0 kV=0.12 kVA=25 Wdg=3 Bus=X2804269B.0.2 kV=0.12 kVA=25
New Transformer.T226192954C %Noloadloss=0.2 Phases=1 %Rs=[0.6         1.2         1.2] Windings=3 XHL=2.04 XHT=2.04 XLT=1.36 %imag=0.5 Wdg=1 Bus=L3157708.3 kV=7.2 kVA=15 Wdg=2 Bus=X3157708C.1.0 kV=0.12 kVA=15 Wdg=3 Bus=X3157708C.0.2 kV=0.12 kVA=15
New Transformer.T5207292C %Noloadloss=0.2 Phases=1 %Rs=[0.6         1.2         1.2] Windings=3 XHL=2.04 XHT=2.04 XLT=1.36 %imag=0.5 Wdg=1 Bus=L3179682.3 kV=7.2 kVA=15 Wdg=2 Bus=X3179682C.1.0 kV=0.12 kVA=15 Wdg=3 Bus=X3179682C.0.2 kV=0.12 kVA=15
New Transformer.T5337672B %Noloadloss=0.2 Phases=1 %Rs=[0.6         1.2         1.2] Windings=3 XHL=2.04 XHT=2.04 XLT=1.36 %imag=0.5 Wdg=1 Bus=L2822877.2 kV=7.2 kVA=15 Wdg=2 Bus=X2822877B.1.0 kV=0.12 kVA=15 Wdg=3 Bus=X2822877B.0.2 kV=0.12 kVA=15
New Transformer.T5442373C %Noloadloss=0.2 Phases=1 %Rs=[0.6         1.2         1.2] Windings=3 XHL=2.04 XHT=2.04 XLT=1.36 %imag=0.5 Wdg=1 Bus=L3141393.3 kV=7.2 kVA=25 Wdg=2 Bus=X3141393C.1.0 kV=0.12 kVA=25 Wdg=3 Bus=X3141393C.0.2 kV=0.12 kVA=25
New Transformer.T21470405A %Noloadloss=0.2 Phases=1 %Rs=[0.6         1.2         1.2] Windings=3 XHL=2.04 XHT=2.04 XLT=1.36 %imag=0.5 Wdg=1 Bus=L2897801.1 kV=7.2 kVA=37.5 Wdg=2 Bus=X2897801A.1.0 kV=0.12 kVA=37.5 Wdg=3 Bus=X2897801A.0.2 kV=0.12 kVA=37.5
New Transformer.T5218474A %Noloadloss=0.2 Phases=1 %Rs=[0.6         1.2         1.2] Windings=3 XHL=2.04 XHT=2.04 XLT=1.36 %imag=0.5 Wdg=1 Bus=L3217056.1 kV=7.2 kVA=50 Wdg=2 Bus=X3217056A.1.0 kV=0.12 kVA=50 Wdg=3 Bus=X3217056A.0.2 kV=0.12 kVA=50
New Transformer.T5218472A %Noloadloss=0.2 Phases=1 %Rs=[0.6         1.2         1.2] Windings=3 XHL=2.04 XHT=2.04 XLT=1.36 %imag=0.5 Wdg=1 Bus=L2936270.1 kV=7.2 kVA=25 Wdg=2 Bus=X2936270A.1.0 kV=0.12 kVA=25 Wdg=3 Bus=X2936270A.0.2 kV=0.12 kVA=25
New Transformer.T5356014A %Noloadloss=0.2 Phases=1 %Rs=[0.6         1.2         1.2] Windings=3 XHL=2.04 XHT=2.04 XLT=1.36 %imag=0.5 Wdg=1 Bus=L3235249.1 kV=7.2 kVA=10 Wdg=2 Bus=X3235249A.1.0 kV=0.12 kVA=10 Wdg=3 Bus=X3235249A.0.2 kV=0.12 kVA=10
New Transformer.T5260528C %Noloadloss=0.2 Phases=1 %Rs=[0.6         1.2         1.2] Windings=3 XHL=2.04 XHT=2.04 XLT=1.36 %imag=0.5 Wdg=1 Bus=L3217052.3 kV=7.2 kVA=25 Wdg=2 Bus=X3217052C.1.0 kV=0.12 kVA=25 Wdg=3 Bus=X3217052C.0.2 kV=0.12 kVA=25
New Transformer.T5355933A %Noloadloss=0.2 Phases=1 %Rs=[0.6         1.2         1.2] Windings=3 XHL=2.04 XHT=2.04 XLT=1.36 %imag=0.5 Wdg=1 Bus=L2916598.1 kV=7.2 kVA=10 Wdg=2 Bus=X2916598A.1.0 kV=0.12 kVA=10 Wdg=3 Bus=X2916598A.0.2 kV=0.12 kVA=10
New Transformer.T5138649A %Noloadloss=0.2 Phases=1 %Rs=[0.6         1.2         1.2] Windings=3 XHL=2.04 XHT=2.04 XLT=1.36 %imag=0.5 Wdg=1 Bus=L3048206.1 kV=7.2 kVA=25 Wdg=2 Bus=X3048206A.1.0 kV=0.12 kVA=25 Wdg=3 Bus=X3048206A.0.2 kV=0.12 kVA=25
New Transformer.T5391978C %Noloadloss=0.2 Phases=1 %Rs=[0.6         1.2         1.2] Windings=3 XHL=2.04 XHT=2.04 XLT=1.36 %imag=0.5 Wdg=1 Bus=L3141402.3 kV=7.2 kVA=25 Wdg=2 Bus=X3141402C.1.0 kV=0.12 kVA=25 Wdg=3 Bus=X3141402C.0.2 kV=0.12 kVA=25
New Transformer.T5138642A %Noloadloss=0.2 Phases=1 %Rs=[0.6         1.2         1.2] Windings=3 XHL=2.04 XHT=2.04 XLT=1.36 %imag=0.5 Wdg=1 Bus=L3235256.1 kV=7.2 kVA=15 Wdg=2 Bus=X3235256A.1.0 kV=0.12 kVA=15 Wdg=3 Bus=X3235256A.0.2 kV=0.12 kVA=15
New Transformer.T21149420A %Noloadloss=0.2 Phases=1 %Rs=[0.6         1.2         1.2] Windings=3 XHL=2.04 XHT=2.04 XLT=1.36 %imag=0.5 Wdg=1 Bus=L3178973.1 kV=7.2 kVA=25 Wdg=2 Bus=X3178973A.1.0 kV=0.12 kVA=25 Wdg=3 Bus=X3178973A.0.2 kV=0.12 kVA=25
New Transformer.T21382992A %Noloadloss=0.2 Phases=1 %Rs=[0.6         1.2         1.2] Windings=3 XHL=2.04 XHT=2.04 XLT=1.36 %imag=0.5 Wdg=1 Bus=L3197654.1 kV=7.2 kVA=25 Wdg=2 Bus=X3197654A.1.0 kV=0.12 kVA=25 Wdg=3 Bus=X3197654A.0.2 kV=0.12 kVA=25
New Transformer.T5338958C %Noloadloss=0.2 Phases=1 %Rs=[0.6         1.2         1.2] Windings=3 XHL=2.04 XHT=2.04 XLT=1.36 %imag=0.5 Wdg=1 Bus=L3066809.3 kV=7.2 kVA=25 Wdg=2 Bus=X3066809C.1.0 kV=0.12 kVA=25 Wdg=3 Bus=X3066809C.0.2 kV=0.12 kVA=25
New Transformer.T5355585B %Noloadloss=0.2 Phases=1 %Rs=[0.6         1.2         1.2] Windings=3 XHL=2.04 XHT=2.04 XLT=1.36 %imag=0.5 Wdg=1 Bus=L2766742.2 kV=7.2 kVA=15 Wdg=2 Bus=X2766742B.1.0 kV=0.12 kVA=15 Wdg=3 Bus=X2766742B.0.2 kV=0.12 kVA=15
New Transformer.T5338900A %Noloadloss=0.2 Phases=1 %Rs=[0.6         1.2         1.2] Windings=3 XHL=2.04 XHT=2.04 XLT=1.36 %imag=0.5 Wdg=1 Bus=L2991908.1 kV=7.2 kVA=15 Wdg=2 Bus=X2991908A.1.0 kV=0.12 kVA=15 Wdg=3 Bus=X2991908A.0.2 kV=0.12 kVA=15
New Transformer.T5323389B %Noloadloss=0.2 Phases=1 %Rs=[0.6         1.2         1.2] Windings=3 XHL=2.04 XHT=2.04 XLT=1.36 %imag=0.5 Wdg=1 Bus=L3065750.2 kV=7.2 kVA=25 Wdg=2 Bus=X3065750B.1.0 kV=0.12 kVA=25 Wdg=3 Bus=X3065750B.0.2 kV=0.12 kVA=25
New Transformer.T28127253A %Noloadloss=0.2 Phases=1 %Rs=[0.6         1.2         1.2] Windings=3 XHL=2.04 XHT=2.04 XLT=1.36 %imag=0.5 Wdg=1 Bus=L3085401.1 kV=7.2 kVA=37.5 Wdg=2 Bus=X3085401A.1.0 kV=0.12 kVA=37.5 Wdg=3 Bus=X3085401A.0.2 kV=0.12 kVA=37.5
New Transformer.T21397067A %Noloadloss=0.2 Phases=1 %Rs=[0.6         1.2         1.2] Windings=3 XHL=2.04 XHT=2.04 XLT=1.36 %imag=0.5 Wdg=1 Bus=L2729413.1 kV=7.2 kVA=15 Wdg=2 Bus=X2729413A.1.0 kV=0.12 kVA=15 Wdg=3 Bus=X2729413A.0.2 kV=0.12 kVA=15
New Transformer.T5260520B %Noloadloss=0.2 Phases=1 %Rs=[0.6         1.2         1.2] Windings=3 XHL=2.04 XHT=2.04 XLT=1.36 %imag=0.5 Wdg=1 Bus=L3254915.2 kV=7.2 kVA=5 Wdg=2 Bus=X3254915B.1.0 kV=0.12 kVA=5 Wdg=3 Bus=X3254915B.0.2 kV=0.12 kVA=5
New Transformer.T5323250B %Noloadloss=0.2 Phases=1 %Rs=[0.6         1.2         1.2] Windings=3 XHL=2.04 XHT=2.04 XLT=1.36 %imag=0.5 Wdg=1 Bus=L2748131.2 kV=7.2 kVA=15 Wdg=2 Bus=X2748131B.1.0 kV=0.12 kVA=15 Wdg=3 Bus=X2748131B.0.2 kV=0.12 kVA=15
New Transformer.T5337659C %Noloadloss=0.2 Phases=1 %Rs=[0.6         1.2         1.2] Windings=3 XHL=2.04 XHT=2.04 XLT=1.36 %imag=0.5 Wdg=1 Bus=L3066810.3 kV=7.2 kVA=25 Wdg=2 Bus=X3066810C.1.0 kV=0.12 kVA=25 Wdg=3 Bus=X3066810C.0.2 kV=0.12 kVA=25
New Transformer.T28118903B %Noloadloss=0.2 Phases=1 %Rs=[0.6         1.2         1.2] Windings=3 XHL=2.04 XHT=2.04 XLT=1.36 %imag=0.5 Wdg=1 Bus=L2973146.2 kV=7.2 kVA=25 Wdg=2 Bus=X2973146B.1.0 kV=0.12 kVA=25 Wdg=3 Bus=X2973146B.0.2 kV=0.12 kVA=25
New Transformer.T21398646B %Noloadloss=0.2 Phases=1 %Rs=[0.6         1.2         1.2] Windings=3 XHL=2.04 XHT=2.04 XLT=1.36 %imag=0.5 Wdg=1 Bus=L2973180.2 kV=7.2 kVA=25 Wdg=2 Bus=X2973180B.1.0 kV=0.12 kVA=25 Wdg=3 Bus=X2973180B.0.2 kV=0.12 kVA=25
New Transformer.T5293656B %Noloadloss=0.2 Phases=1 %Rs=[0.6         1.2         1.2] Windings=3 XHL=2.04 XHT=2.04 XLT=1.36 %imag=0.5 Wdg=1 Bus=L2973167.2 kV=7.2 kVA=15 Wdg=2 Bus=X2973167B.1.0 kV=0.12 kVA=15 Wdg=3 Bus=X2973167B.0.2 kV=0.12 kVA=15
New Transformer.T5338910C %Noloadloss=0.2 Phases=1 %Rs=[0.6         1.2         1.2] Windings=3 XHL=2.04 XHT=2.04 XLT=1.36 %imag=0.5 Wdg=1 Bus=L2841621.3 kV=7.2 kVA=25 Wdg=2 Bus=X2841621C.1.0 kV=0.12 kVA=25 Wdg=3 Bus=X2841621C.0.2 kV=0.12 kVA=25
New Transformer.T28129923C %Noloadloss=0.2 Phases=1 %Rs=[0.6         1.2         1.2] Windings=3 XHL=2.04 XHT=2.04 XLT=1.36 %imag=0.5 Wdg=1 Bus=L3123509.3 kV=7.2 kVA=15 Wdg=2 Bus=X3123509C.1.0 kV=0.12 kVA=15 Wdg=3 Bus=X3123509C.0.2 kV=0.12 kVA=15
New Transformer.T5337716A %Noloadloss=0.2 Phases=1 %Rs=[0.6         1.2         1.2] Windings=3 XHL=2.04 XHT=2.04 XLT=1.36 %imag=0.5 Wdg=1 Bus=L2841627.1 kV=7.2 kVA=15 Wdg=2 Bus=X2841627A.1.0 kV=0.12 kVA=15 Wdg=3 Bus=X2841627A.0.2 kV=0.12 kVA=15
New Transformer.T5337698B %Noloadloss=0.2 Phases=1 %Rs=[0.6         1.2         1.2] Windings=3 XHL=2.04 XHT=2.04 XLT=1.36 %imag=0.5 Wdg=1 Bus=L3235250.2 kV=7.2 kVA=10 Wdg=2 Bus=X3235250B.1.0 kV=0.12 kVA=10 Wdg=3 Bus=X3235250B.0.2 kV=0.12 kVA=10
New Transformer.T2224386946A %Noloadloss=0.2 Phases=1 %Rs=[0.6         1.2         1.2] Windings=3 XHL=2.04 XHT=2.04 XLT=1.36 %imag=0.5 Wdg=1 Bus=L3728037.1 kV=7.2 kVA=25 Wdg=2 Bus=X3728037A.1.0 kV=0.12 kVA=25 Wdg=3 Bus=X3728037A.0.2 kV=0.12 kVA=25
New Transformer.T5330121B %Noloadloss=0.2 Phases=1 %Rs=[0.6         1.2         1.2] Windings=3 XHL=2.04 XHT=2.04 XLT=1.36 %imag=0.5 Wdg=1 Bus=L3142078.2 kV=7.2 kVA=10 Wdg=2 Bus=X3142078B.1.0 kV=0.12 kVA=10 Wdg=3 Bus=X3142078B.0.2 kV=0.12 kVA=10
New Transformer.T5323252B %Noloadloss=0.2 Phases=1 %Rs=[0.6         1.2         1.2] Windings=3 XHL=2.04 XHT=2.04 XLT=1.36 %imag=0.5 Wdg=1 Bus=L2879066.2 kV=7.2 kVA=15 Wdg=2 Bus=X2879066B.1.0 kV=0.12 kVA=15 Wdg=3 Bus=X2879066B.0.2 kV=0.12 kVA=15
New Transformer.T5441331C %Noloadloss=0.2 Phases=1 %Rs=[0.6         1.2         1.2] Windings=3 XHL=2.04 XHT=2.04 XLT=1.36 %imag=0.5 Wdg=1 Bus=L3235254.3 kV=7.2 kVA=25 Wdg=2 Bus=X3235254C.1.0 kV=0.12 kVA=25 Wdg=3 Bus=X3235254C.0.2 kV=0.12 kVA=25
New Transformer.T5260474A %Noloadloss=0.2 Phases=1 %Rs=[0.6         1.2         1.2] Windings=3 XHL=2.04 XHT=2.04 XLT=1.36 %imag=0.5 Wdg=1 Bus=L2917330.1 kV=7.2 kVA=25 Wdg=2 Bus=X2917330A.1.0 kV=0.12 kVA=25 Wdg=3 Bus=X2917330A.0.2 kV=0.12 kVA=25
New Transformer.T5355376B %Noloadloss=0.2 Phases=1 %Rs=[0.6         1.2         1.2] Windings=3 XHL=2.04 XHT=2.04 XLT=1.36 %imag=0.5 Wdg=1 Bus=L2914323.2 kV=7.2 kVA=10 Wdg=2 Bus=X2914323B.1.0 kV=0.12 kVA=10 Wdg=3 Bus=X2914323B.0.2 kV=0.12 kVA=10
New Transformer.T5338944C %Noloadloss=0.2 Phases=1 %Rs=[0.6         1.2         1.2] Windings=3 XHL=2.04 XHT=2.04 XLT=1.36 %imag=0.5 Wdg=1 Bus=L3197640.3 kV=7.2 kVA=10 Wdg=2 Bus=X3197640C.1.0 kV=0.12 kVA=10 Wdg=3 Bus=X3197640C.0.2 kV=0.12 kVA=10
New Transformer.T5260640C %Noloadloss=0.2 Phases=1 %Rs=[0.6         1.2         1.2] Windings=3 XHL=2.04 XHT=2.04 XLT=1.36 %imag=0.5 Wdg=1 Bus=L3179673.3 kV=7.2 kVA=15 Wdg=2 Bus=X3179673C.1.0 kV=0.12 kVA=15 Wdg=3 Bus=X3179673C.0.2 kV=0.12 kVA=15
New Transformer.T5274997C %Noloadloss=0.2 Phases=1 %Rs=[0.6         1.2         1.2] Windings=3 XHL=2.04 XHT=2.04 XLT=1.36 %imag=0.5 Wdg=1 Bus=L3048228.3 kV=7.2 kVA=25 Wdg=2 Bus=X3048228C.1.0 kV=0.12 kVA=25 Wdg=3 Bus=X3048228C.0.2 kV=0.12 kVA=25
New Transformer.T5138372C %Noloadloss=0.2 Phases=1 %Rs=[0.6         1.2         1.2] Windings=3 XHL=2.04 XHT=2.04 XLT=1.36 %imag=0.5 Wdg=1 Bus=L3104126.3 kV=7.2 kVA=10 Wdg=2 Bus=X3104126C.1.0 kV=0.12 kVA=10 Wdg=3 Bus=X3104126C.0.2 kV=0.12 kVA=10
New Transformer.T226308721A %Noloadloss=0.2 Phases=1 %Rs=[0.6         1.2         1.2] Windings=3 XHL=2.04 XHT=2.04 XLT=1.36 %imag=0.5 Wdg=1 Bus=L2990098.1 kV=7.2 kVA=50 Wdg=2 Bus=X2990098A.1.0 kV=0.12 kVA=50 Wdg=3 Bus=X2990098A.0.2 kV=0.12 kVA=50
New Transformer.T21380616A %Noloadloss=0.2 Phases=1 %Rs=[0.6         1.2         1.2] Windings=3 XHL=2.04 XHT=2.04 XLT=1.36 %imag=0.5 Wdg=1 Bus=L2879067.1 kV=7.2 kVA=25 Wdg=2 Bus=X2879067A.1.0 kV=0.12 kVA=25 Wdg=3 Bus=X2879067A.0.2 kV=0.12 kVA=25
New Transformer.T226193170A %Noloadloss=0.2 Phases=1 %Rs=[0.6         1.2         1.2] Windings=3 XHL=2.04 XHT=2.04 XLT=1.36 %imag=0.5 Wdg=1 Bus=L3176656.1 kV=7.2 kVA=25 Wdg=2 Bus=X3176656A.1.0 kV=0.12 kVA=25 Wdg=3 Bus=X3176656A.0.2 kV=0.12 kVA=25
New Transformer.T5293666C %Noloadloss=0.2 Phases=1 %Rs=[0.6         1.2         1.2] Windings=3 XHL=2.04 XHT=2.04 XLT=1.36 %imag=0.5 Wdg=1 Bus=L2710532.3 kV=7.2 kVA=10 Wdg=2 Bus=X2710532C.1.0 kV=0.12 kVA=10 Wdg=3 Bus=X2710532C.0.2 kV=0.12 kVA=10
New Transformer.T5338994B %Noloadloss=0.2 Phases=1 %Rs=[0.6         1.2         1.2] Windings=3 XHL=2.04 XHT=2.04 XLT=1.36 %imag=0.5 Wdg=1 Bus=L3160115.2 kV=7.2 kVA=50 Wdg=2 Bus=X3160115B.1.0 kV=0.12 kVA=50 Wdg=3 Bus=X3160115B.0.2 kV=0.12 kVA=50
New Transformer.T228665517C %Noloadloss=0.2 Phases=1 %Rs=[0.6         1.2         1.2] Windings=3 XHL=2.04 XHT=2.04 XLT=1.36 %imag=0.5 Wdg=1 Bus=L3103822.3 kV=7.2 kVA=37.5 Wdg=2 Bus=X3103822C.1.0 kV=0.12 kVA=37.5 Wdg=3 Bus=X3103822C.0.2 kV=0.12 kVA=37.5
New Transformer.T5260647A %Noloadloss=0.2 Phases=1 %Rs=[0.6         1.2         1.2] Windings=3 XHL=2.04 XHT=2.04 XLT=1.36 %imag=0.5 Wdg=1 Bus=L2805034.1 kV=7.2 kVA=10 Wdg=2 Bus=X2805034A.1.0 kV=0.12 kVA=10 Wdg=3 Bus=X2805034A.0.2 kV=0.12 kVA=10
New Transformer.T226115278A %Noloadloss=0.2 Phases=1 %Rs=[0.6         1.2         1.2] Windings=3 XHL=2.04 XHT=2.04 XLT=1.36 %imag=0.5 Wdg=1 Bus=L3157167.1 kV=7.2 kVA=15 Wdg=2 Bus=X3157167A.1.0 kV=0.12 kVA=15 Wdg=3 Bus=X3157167A.0.2 kV=0.12 kVA=15
New Transformer.T5338977A %Noloadloss=0.2 Phases=1 %Rs=[0.6         1.2         1.2] Windings=3 XHL=2.04 XHT=2.04 XLT=1.36 %imag=0.5 Wdg=1 Bus=L2916620.1 kV=7.2 kVA=10 Wdg=2 Bus=X2916620A.1.0 kV=0.12 kVA=10 Wdg=3 Bus=X2916620A.0.2 kV=0.12 kVA=10
New Transformer.T5338977B %Noloadloss=0.2 Phases=1 %Rs=[0.6         1.2         1.2] Windings=3 XHL=2.04 XHT=2.04 XLT=1.36 %imag=0.5 Wdg=1 Bus=L2916620.2 kV=7.2 kVA=10 Wdg=2 Bus=X2916620B.1.0 kV=0.12 kVA=10 Wdg=3 Bus=X2916620B.0.2 kV=0.12 kVA=10
New Transformer.T5338977C %Noloadloss=0.2 Phases=1 %Rs=[0.6         1.2         1.2] Windings=3 XHL=2.04 XHT=2.04 XLT=1.36 %imag=0.5 Wdg=1 Bus=L2916620.3 kV=7.2 kVA=10 Wdg=2 Bus=X2916620C.1.0 kV=0.12 kVA=10 Wdg=3 Bus=X2916620C.0.2 kV=0.12 kVA=10
New Transformer.T5321876A %Noloadloss=0.2 Phases=1 %Rs=[0.6         1.2         1.2] Windings=3 XHL=2.04 XHT=2.04 XLT=1.36 %imag=0.5 Wdg=1 Bus=L3027132.1 kV=7.2 kVA=15 Wdg=2 Bus=X3027132A.1.0 kV=0.12 kVA=15 Wdg=3 Bus=X3027132A.0.2 kV=0.12 kVA=15
New Transformer.T5275001C %Noloadloss=0.2 Phases=1 %Rs=[0.6         1.2         1.2] Windings=3 XHL=2.04 XHT=2.04 XLT=1.36 %imag=0.5 Wdg=1 Bus=L2822862.3 kV=7.2 kVA=15 Wdg=2 Bus=X2822862C.1.0 kV=0.12 kVA=15 Wdg=3 Bus=X2822862C.0.2 kV=0.12 kVA=15
New Transformer.T227411650C %Noloadloss=0.2 Phases=1 %Rs=[0.6         1.2         1.2] Windings=3 XHL=2.04 XHT=2.04 XLT=1.36 %imag=0.5 Wdg=1 Bus=L2937757.3 kV=7.2 kVA=25 Wdg=2 Bus=X2937757C.1.0 kV=0.12 kVA=25 Wdg=3 Bus=X2937757C.0.2 kV=0.12 kVA=25
New Transformer.T21396699B %Noloadloss=0.2 Phases=1 %Rs=[0.6         1.2         1.2] Windings=3 XHL=2.04 XHT=2.04 XLT=1.36 %imag=0.5 Wdg=1 Bus=L2860483.2 kV=7.2 kVA=25 Wdg=2 Bus=X2860483B.1.0 kV=0.12 kVA=25 Wdg=3 Bus=X2860483B.0.2 kV=0.12 kVA=25
New Transformer.T5302412A %Noloadloss=0.2 Phases=1 %Rs=[0.6         1.2         1.2] Windings=3 XHL=2.04 XHT=2.04 XLT=1.36 %imag=0.5 Wdg=1 Bus=L3048210.1 kV=7.2 kVA=37.5 Wdg=2 Bus=X3048210A.1.0 kV=0.12 kVA=37.5 Wdg=3 Bus=X3048210A.0.2 kV=0.12 kVA=37.5
New Transformer.T2223661373A %Noloadloss=0.2 Phases=1 %Rs=[0.6         1.2         1.2] Windings=3 XHL=2.04 XHT=2.04 XLT=1.36 %imag=0.5 Wdg=1 Bus=L3312692.1 kV=7.2 kVA=25 Wdg=2 Bus=X3312692A.1.0 kV=0.12 kVA=25 Wdg=3 Bus=X3312692A.0.2 kV=0.12 kVA=25
New Transformer.T226881700A %Noloadloss=0.2 Phases=1 %Rs=[0.6         1.2         1.2] Windings=3 XHL=2.04 XHT=2.04 XLT=1.36 %imag=0.5 Wdg=1 Bus=L3251854.1 kV=7.2 kVA=25 Wdg=2 Bus=X3251854A.1.0 kV=0.12 kVA=25 Wdg=3 Bus=X3251854A.0.2 kV=0.12 kVA=25
New Transformer.T5355777B %Noloadloss=0.2 Phases=1 %Rs=[0.6         1.2         1.2] Windings=3 XHL=2.04 XHT=2.04 XLT=1.36 %imag=0.5 Wdg=1 Bus=L3085398.2 kV=7.2 kVA=25 Wdg=2 Bus=X3085398B.1.0 kV=0.12 kVA=25 Wdg=3 Bus=X3085398B.0.2 kV=0.12 kVA=25
New Transformer.T5337671A %Noloadloss=0.2 Phases=1 %Rs=[0.6         1.2         1.2] Windings=3 XHL=2.04 XHT=2.04 XLT=1.36 %imag=0.5 Wdg=1 Bus=L3254207.1 kV=7.2 kVA=15 Wdg=2 Bus=X3254207A.1.0 kV=0.12 kVA=15 Wdg=3 Bus=X3254207A.0.2 kV=0.12 kVA=15
New Transformer.T5339018A %Noloadloss=0.2 Phases=1 %Rs=[0.6         1.2         1.2] Windings=3 XHL=2.04 XHT=2.04 XLT=1.36 %imag=0.5 Wdg=1 Bus=L2729424.1 kV=7.2 kVA=15 Wdg=2 Bus=X2729424A.1.0 kV=0.12 kVA=15 Wdg=3 Bus=X2729424A.0.2 kV=0.12 kVA=15
New Transformer.T21398676A %Noloadloss=0.2 Phases=1 %Rs=[0.6         1.2         1.2] Windings=3 XHL=2.04 XHT=2.04 XLT=1.36 %imag=0.5 Wdg=1 Bus=L3066816.1 kV=7.2 kVA=15 Wdg=2 Bus=X3066816A.1.0 kV=0.12 kVA=15 Wdg=3 Bus=X3066816A.0.2 kV=0.12 kVA=15
New Transformer.T5138469C %Noloadloss=0.2 Phases=1 %Rs=[0.6         1.2         1.2] Windings=3 XHL=2.04 XHT=2.04 XLT=1.36 %imag=0.5 Wdg=1 Bus=L2785518.3 kV=7.2 kVA=15 Wdg=2 Bus=X2785518C.1.0 kV=0.12 kVA=15 Wdg=3 Bus=X2785518C.0.2 kV=0.12 kVA=15
New Transformer.T5138373C %Noloadloss=0.2 Phases=1 %Rs=[0.6         1.2         1.2] Windings=3 XHL=2.04 XHT=2.04 XLT=1.36 %imag=0.5 Wdg=1 Bus=L3029503.3 kV=7.2 kVA=15 Wdg=2 Bus=X3029503C.1.0 kV=0.12 kVA=15 Wdg=3 Bus=X3029503C.0.2 kV=0.12 kVA=15
...